-------------------------------------------------------
          Amber 22 SANDER                              2022
          -------------------------------------------------------

  [-O]verwriting output

File Assignments:

 Here is the input file:

NPT 300K; whole solute restrained (20.0)
&cntrl
  imin=0, irest=1, ntx=5, ig=-1,
  ntb=2, ntp=1, pres0=1.0, taup=2.0,
  ntt=3, temp0=300.0, gamma_ln=1.0, nscm=0,
  nstlim=250000, dt=0.002,
  ntc=2, ntf=2, cut=8.0,
  iwrap=0, ioutfm=1, ntxo=2,
  ntpr=1000, ntwx=1000, ntwr=10000,
  ntr=1, restraint_wt=5.0,
  restraintmask='((!:WAT,Na+,Cl-) & !@H=)'
/

--------------------------------------------------------------------------------
   1.  RESOURCE   USE:
--------------------------------------------------------------------------------

 getting box info from netcdf restart file
 NATOM  =   33493 NTYPES =      16 NBONH =   31700 MBONA  =    1842
 NTHETH =    4001 MTHETA =    2496 NPHIH =    8095 MPHIA  =    7762
 NHPARM =       0 NPARM  =       0 NNB   =   59570 NRES   =   10205
 NBONA  =    1842 NTHETA =    2496 NPHIA =    7762 NUMBND =      99
 NUMANG =     218 NPTRA  =     214 NATYP =      55 NPHB   =       0
 IFBOX  =       2 NMXRS  =      40 IFCAP =       0 NEXTRA =       0
 NCOPY  =       0

     BOX TYPE: TRUNCATED OCTAHEDRON
Note: ig = -1. Setting random seed to   100727 based on wallclock time in microseconds.

--------------------------------------------------------------------------------
   2.  CONTROL  DATA  FOR  THE  RUN
--------------------------------------------------------------------------------

default_name

General flags:
     imin    =       0, nmropt  =       0

Nature and format of input:
     ntx     =       5, irest   =       1, ntrx    =       1

Nature and format of output:
     ntxo    =       2, ntpr    =    1000, ntrx    =       1, ntwr    =   10000
     iwrap   =       0, ntwx    =    1000, ntwv    =       0, ntwe    =       0
     ioutfm  =       1, ntwprt  =       0, idecomp =       0, rbornstat=      0

Potential function:
     ntf     =       2, ntb     =       2, igb     =       0, nsnb    =      25
     ipol    =       0, gbsa    =       0, iesp    =       0
     dielc   =   1.00000, cut     =   8.00000, intdiel =   1.00000

Frozen or restrained atoms:
     ibelly  =       0, ntr     =       1
     restraint_wt =   5.00000

Molecular dynamics:
     nstlim  =    250000, nscm    =         0, nrespa  =         1
     t       =   0.00000, dt      =   0.00200, vlimit  =  20.00000

Langevin dynamics temperature regulation:
     ig      =  100727
     temp0   = 300.00000, tempi   =   0.00000, gamma_ln=   1.00000

Pressure regulation:
     ntp     =       1
     pres0   =   1.00000, comp    =  44.60000, taup    =   2.00000

SHAKE:
     ntc     =       2, jfastw  =       0
     tol     =   0.00001

Ewald parameters:
     verbose =       0, ew_type =       0, nbflag  =       1, use_pme =       1
     vdwmeth =       1, eedmeth =       1, netfrc  =       1
     Box X =   79.115   Box Y =   79.115   Box Z =   79.115
     Alpha =  109.471   Beta  =  109.471   Gamma =  109.471
     NFFT1 =   80       NFFT2 =   80       NFFT3 =   80
     Cutoff=    8.000   Tol   =0.100E-04
     Ewald Coefficient =  0.34864
     Interpolation order =    4

    LOADING THE CONSTRAINED ATOMS AS GROUPS

   5.  REFERENCE ATOM COORDINATES

  defa
     Mask ((!:WAT,Na+,Cl-) & !@H=); matches  1792 atoms

--------------------------------------------------------------------------------
   3.  ATOMIC COORDINATES AND VELOCITIES
--------------------------------------------------------------------------------

default_name
 begin time read from input coords =  1500.000 ps

 Number of triangulated 3-point waters found:     9983

     Sum of charges from parm topology file =  -0.00000008
     Forcing neutrality...

--------------------------------------------------------------------------------
   4.  RESULTS
 NSTEP =     1000   TIME(PS) =    1502.000  TEMP(K) =   302.73  PRESS =  -609.1
 Etot   =    -78674.6858  EKtot   =     20687.9805  EPtot      =    -99362.6662
 BOND   =       674.0909  ANGLE   =      1859.3247  DIHED      =      2784.4803
 1-4 NB =       788.4864  1-4 EEL =     10109.7825  VDWAALS    =     11707.0783
 EELEC  =   -127634.1780  EHBOND  =         0.0000  RESTRAINT  =       348.2687
 EAMBER (non-restraint)  =    -99710.9349
 EKCMT  =      9042.6017  VIRIAL  =     13932.9382  VOLUME     =    371863.1424
                                                    Density    =         0.9166
 Ewald error estimate:   0.6052E-04
 ------------------------------------------------------------------------------

      A V E R A G E S   O V E R  250000 S T E P S

 NSTEP =   250000   TIME(PS) =    2000.000  TEMP(K) =   299.96  PRESS =   -10.7
 Etot   =    -80160.1497  EKtot   =     20498.8202  EPtot      =   -100658.9699
 BOND   =       667.2416  ANGLE   =      1817.4454  DIHED      =      2772.4651
 1-4 NB =       785.9888  1-4 EEL =     10162.4639  VDWAALS    =     12051.5931
 EELEC  =   -129255.6755  EHBOND  =         0.0000  RESTRAINT  =       339.5078
 EAMBER (non-restraint)  =   -100998.4777
 EKCMT  =      8961.0156  VIRIAL  =      9044.3517  VOLUME     =    335172.5018
                                                    Density    =         1.0171
 Ewald error estimate:   0.6194E-04
 ------------------------------------------------------------------------------

      R M S  F L U C T U A T I O N S

 NSTEP =   250000   TIME(PS) =    2000.000  TEMP(K) =     1.63  PRESS =   150.3
 Etot   =       268.6845  EKtot   =       111.6863  EPtot      =       238.8958
 BOND   =        21.2933  ANGLE   =        31.7776  DIHED      =        15.8736
 1-4 NB =        10.1602  1-4 EEL =        27.0117  VDWAALS    =       147.8710
 EELEC  =       316.2614  EHBOND  =         0.0000  RESTRAINT  =        11.6072
 EAMBER (non-restraint)  =       227.2886
 EKCMT  =        73.9372  VIRIAL  =      1103.0149  VOLUME     =      4665.4269
                                                    Density    =         0.0130
 Ewald error estimate:   0.4392E-04
 ------------------------------------------------------------------------------
