-------------------------------------------------------
          Amber 24 SANDER                              2024
          -------------------------------------------------------

  [-O]verwriting output

File Assignments:

 Here is the input file:

NPT 300K; protein backbone + 5SQ heavy atoms restrained (1.0)
&cntrl
  imin=0, irest=1, ntx=5, ig=-1,
  ntb=2, ntp=1, pres0=1.0, taup=2.0,
  ntt=3, temp0=300.0, gamma_ln=1.0, nscm=0,
  nstlim=500000, dt=0.002,      ! 1 ns
  ntc=2, ntf=2, cut=8.0,
  iwrap=0, ioutfm=1, ntxo=2,
  ntpr=1000, ntwx=1000, ntwr=10000,
  ntr=1, restraint_wt=1.0,
  restraintmask='((!:WAT,Na+,Cl-,5SQ) & @N,CA,C) | (:5SQ@CA1,CA2,CA3,CB1,CB2,CG1,CG2,CD1,CD2,CE1,CE2,CZ1,OH,C1,N1,C2,N2,O2,C3,N3,O3)'
/

--------------------------------------------------------------------------------
   1.  RESOURCE   USE:
--------------------------------------------------------------------------------

 getting box info from netcdf restart file
 NATOM  =   33493 NTYPES =      16 NBONH =   31700 MBONA  =    1842
 NTHETH =    4001 MTHETA =    2496 NPHIH =    8095 MPHIA  =    7762
 NHPARM =       0 NPARM  =       0 NNB   =   59570 NRES   =   10205
 NBONA  =    1842 NTHETA =    2496 NPHIA =    7762 NUMBND =      99
 NUMANG =     218 NPTRA  =     214 NATYP =      55 NPHB   =       0
 IFBOX  =       2 NMXRS  =      40 IFCAP =       0 NEXTRA =       0
 NCOPY  =       0

     BOX TYPE: TRUNCATED OCTAHEDRON
Note: ig = -1. Setting random seed to   269374 based on wallclock time in microseconds
      and disabling the synchronization of random numbers between tasks
      to improve performance.

--------------------------------------------------------------------------------
   2.  CONTROL  DATA  FOR  THE  RUN
--------------------------------------------------------------------------------

default_name

General flags:
     imin    =       0, nmropt  =       0

Nature and format of input:
     ntx     =       5, irest   =       1, ntrx    =       1

Nature and format of output:
     ntxo    =       2, ntpr    =    1000, ntrx    =       1, ntwr    =   10000
     iwrap   =       0, ntwx    =    1000, ntwv    =       0, ntwe    =       0
     ioutfm  =       1, ntwprt  =       0, idecomp =       0, rbornstat=      0

Potential function:
     ntf     =       2, ntb     =       2, igb     =       0, nsnb    =      25
     ipol    =       0, gbsa    =       0, iesp    =       0
     dielc   =   1.00000, cut     =   8.00000, intdiel =   1.00000

Frozen or restrained atoms:
     ibelly  =       0, ntr     =       1
     restraint_wt =   1.00000

Molecular dynamics:
     nstlim  =    500000, nscm    =         0, nrespa  =         1
     t       =   0.00000, dt      =   0.00200, vlimit  =  20.00000

Langevin dynamics temperature regulation:
     ig      =  269374
     temp0   = 300.00000, tempi   =   0.00000, gamma_ln=   1.00000

Pressure regulation:
     ntp     =       1
     pres0   =   1.00000, comp    =  44.60000, taup    =   2.00000

SHAKE:
     ntc     =       2, jfastw  =       0
     tol     =   0.00001

Ewald parameters:
     verbose =       0, ew_type =       0, nbflag  =       1, use_pme =       1
     vdwmeth =       1, eedmeth =       1, netfrc  =       1
     Box X =   75.678   Box Y =   75.678   Box Z =   75.678
     Alpha =  109.471   Beta  =  109.471   Gamma =  109.471
     NFFT1 =   80       NFFT2 =   75       NFFT3 =   75
     Cutoff=    8.000   Tol   =0.100E-04
     Ewald Coefficient =  0.34864
     Interpolation order =    4

    LOADING THE CONSTRAINED ATOMS AS GROUPS

   5.  REFERENCE ATOM COORDINATES

  defa
     Mask ((!:WAT,Na+,Cl-,5SQ) & @N,CA,C) | (:5SQ@CA1,CA2,CA3,CB1,CB2,CG1,CG2,CD1,CD2,CE1,CE2,CZ1,OH,C1,N1,C2,N2,O2,C3,N3,O3); matches   681 atoms

--------------------------------------------------------------------------------
   3.  ATOMIC COORDINATES AND VELOCITIES
--------------------------------------------------------------------------------

default_name
 begin time read from input coords =  2500.000 ps

 Number of triangulated 3-point waters found:     9983

     Sum of charges from parm topology file =  -0.00000008
     Forcing neutrality...

--------------------------------------------------------------------------------
   4.  RESULTS
 NSTEP =     1000   TIME(PS) =    2502.000  TEMP(K) =   298.57  PRESS =   -67.5
 Etot   =    -80575.5602  EKtot   =     20403.7734  EPtot      =   -100979.3336
 BOND   =       697.9366  ANGLE   =      1892.1837  DIHED      =      2810.2099
 1-4 NB =       784.9121  1-4 EEL =     10165.0685  VDWAALS    =     12003.8473
 EELEC  =   -129398.6272  EHBOND  =         0.0000  RESTRAINT  =        65.1356
 EAMBER (non-restraint)  =   -101044.4692
 EKCMT  =      8904.8795  VIRIAL  =      9391.3443  VOLUME     =    333823.3885
                                                    Density    =         1.0210
 Ewald error estimate:   0.3613E-05
 ------------------------------------------------------------------------------

      A V E R A G E S   O V E R  500000 S T E P S

 NSTEP =   500000   TIME(PS) =    3500.000  TEMP(K) =   299.99  PRESS =     1.1
 Etot   =    -80400.7244  EKtot   =     20500.8978  EPtot      =   -100901.6221
 BOND   =       677.9337  ANGLE   =      1846.4458  DIHED      =      2781.3819
 1-4 NB =       793.3494  1-4 EEL =     10185.2439  VDWAALS    =     12068.6565
 EELEC  =   -129326.7368  EHBOND  =         0.0000  RESTRAINT  =        72.1034
 EAMBER (non-restraint)  =   -100973.7255
 EKCMT  =      8961.8474  VIRIAL  =      8953.7098  VOLUME     =    334178.6551
                                                    Density    =         1.0199
 Ewald error estimate:   0.5796E-04
 ------------------------------------------------------------------------------

      R M S  F L U C T U A T I O N S

 NSTEP =   500000   TIME(PS) =    3500.000  TEMP(K) =     1.59  PRESS =   140.2
 Etot   =       188.6472  EKtot   =       108.7700  EPtot      =       152.9460
 BOND   =        21.8124  ANGLE   =        32.2185  DIHED      =        18.8401
 1-4 NB =        11.2513  1-4 EEL =        33.3743  VDWAALS    =       145.2937
 EELEC  =       231.4031  EHBOND  =         0.0000  RESTRAINT  =         5.2069
 EAMBER (non-restraint)  =       147.7392
 EKCMT  =        72.6416  VIRIAL  =      1012.6263  VOLUME     =       383.6287
                                                    Density    =         0.0012
 Ewald error estimate:   0.4174E-04
 ------------------------------------------------------------------------------
