-------------------------------------------------------
          Amber 24 SANDER                              2024
          -------------------------------------------------------

  [-O]verwriting output

File Assignments:

 Here is the input file:

NPT 300K; protein backbone + 5SQ heavy atoms restrained (0.1)
&cntrl
  imin=0, irest=1, ntx=5, ig=-1,
  ntb=2, ntp=1, pres0=1.0, taup=2.0,
  ntt=3, temp0=300.0, gamma_ln=1.0, nscm=0,
  nstlim=500000, dt=0.002,
  ntc=2, ntf=2, cut=8.0,
  iwrap=0, ioutfm=1, ntxo=2,
  ntpr=5000, ntwx=5000, ntwr=10000,
  ntr=1, restraint_wt=0.1,
  restraintmask='((!:WAT,Na+,Cl-,5SQ) & @N,CA,C) | (:5SQ@CA1,CA2,CA3,CB1,CB2,CG1,CG2,CD1,CD2,CE1,CE2,CZ1,OH,C1,N1,C2,N2,O2,C3,N3,O3)'
/

--------------------------------------------------------------------------------
   1.  RESOURCE   USE:
--------------------------------------------------------------------------------

 getting box info from netcdf restart file
 NATOM  =   33493 NTYPES =      16 NBONH =   31700 MBONA  =    1842
 NTHETH =    4001 MTHETA =    2496 NPHIH =    8095 MPHIA  =    7762
 NHPARM =       0 NPARM  =       0 NNB   =   59570 NRES   =   10205
 NBONA  =    1842 NTHETA =    2496 NPHIA =    7762 NUMBND =      99
 NUMANG =     218 NPTRA  =     214 NATYP =      55 NPHB   =       0
 IFBOX  =       2 NMXRS  =      40 IFCAP =       0 NEXTRA =       0
 NCOPY  =       0

     BOX TYPE: TRUNCATED OCTAHEDRON
Note: ig = -1. Setting random seed to   227242 based on wallclock time in microseconds
      and disabling the synchronization of random numbers between tasks
      to improve performance.

--------------------------------------------------------------------------------
   2.  CONTROL  DATA  FOR  THE  RUN
--------------------------------------------------------------------------------

default_name

General flags:
     imin    =       0, nmropt  =       0

Nature and format of input:
     ntx     =       5, irest   =       1, ntrx    =       1

Nature and format of output:
     ntxo    =       2, ntpr    =    5000, ntrx    =       1, ntwr    =   10000
     iwrap   =       0, ntwx    =    5000, ntwv    =       0, ntwe    =       0
     ioutfm  =       1, ntwprt  =       0, idecomp =       0, rbornstat=      0

Potential function:
     ntf     =       2, ntb     =       2, igb     =       0, nsnb    =      25
     ipol    =       0, gbsa    =       0, iesp    =       0
     dielc   =   1.00000, cut     =   8.00000, intdiel =   1.00000

Frozen or restrained atoms:
     ibelly  =       0, ntr     =       1
     restraint_wt =   0.10000

Molecular dynamics:
     nstlim  =    500000, nscm    =         0, nrespa  =         1
     t       =   0.00000, dt      =   0.00200, vlimit  =  20.00000

Langevin dynamics temperature regulation:
     ig      =  227242
     temp0   = 300.00000, tempi   =   0.00000, gamma_ln=   1.00000

Pressure regulation:
     ntp     =       1
     pres0   =   1.00000, comp    =  44.60000, taup    =   2.00000

SHAKE:
     ntc     =       2, jfastw  =       0
     tol     =   0.00001

Ewald parameters:
     verbose =       0, ew_type =       0, nbflag  =       1, use_pme =       1
     vdwmeth =       1, eedmeth =       1, netfrc  =       1
     Box X =   75.729   Box Y =   75.729   Box Z =   75.729
     Alpha =  109.471   Beta  =  109.471   Gamma =  109.471
     NFFT1 =   80       NFFT2 =   75       NFFT3 =   75
     Cutoff=    8.000   Tol   =0.100E-04
     Ewald Coefficient =  0.34864
     Interpolation order =    4

    LOADING THE CONSTRAINED ATOMS AS GROUPS

   5.  REFERENCE ATOM COORDINATES

  defa
     Mask ((!:WAT,Na+,Cl-,5SQ) & @N,CA,C) | (:5SQ@CA1,CA2,CA3,CB1,CB2,CG1,CG2,CD1,CD2,CE1,CE2,CZ1,OH,C1,N1,C2,N2,O2,C3,N3,O3); matches   681 atoms

--------------------------------------------------------------------------------
   3.  ATOMIC COORDINATES AND VELOCITIES
--------------------------------------------------------------------------------

default_name
 begin time read from input coords =  4500.000 ps

 Number of triangulated 3-point waters found:     9983

     Sum of charges from parm topology file =  -0.00000008
     Forcing neutrality...

--------------------------------------------------------------------------------
   4.  RESULTS
 NSTEP =     5000   TIME(PS) =    4510.000  TEMP(K) =   301.30  PRESS =    42.4
 Etot   =    -80514.1776  EKtot   =     20590.1453  EPtot      =   -101104.3229
 BOND   =       642.2562  ANGLE   =      1856.7674  DIHED      =      2773.9501
 1-4 NB =       787.4928  1-4 EEL =     10267.7273  VDWAALS    =     12152.2607
 EELEC  =   -129598.6955  EHBOND  =         0.0000  RESTRAINT  =        13.9179
 EAMBER (non-restraint)  =   -101118.2408
 EKCMT  =      9002.1795  VIRIAL  =      8696.9711  VOLUME     =    333589.8121
                                                    Density    =         1.0217
 Ewald error estimate:   0.6192E-05
 ------------------------------------------------------------------------------

      A V E R A G E S   O V E R  500000 S T E P S

 NSTEP =   500000   TIME(PS) =    5500.000  TEMP(K) =   300.02  PRESS =     1.0
 Etot   =    -80453.6415  EKtot   =     20502.6140  EPtot      =   -100956.2555
 BOND   =       680.7281  ANGLE   =      1855.0415  DIHED      =      2778.7888
 1-4 NB =       793.0898  1-4 EEL =     10237.8295  VDWAALS    =     12065.3450
 EELEC  =   -129387.8741  EHBOND  =         0.0000  RESTRAINT  =        20.7958
 EAMBER (non-restraint)  =   -100977.0513
 EKCMT  =      8961.2733  VIRIAL  =      8954.3353  VOLUME     =    334108.0759
                                                    Density    =         1.0201
 Ewald error estimate:   0.5816E-04
 ------------------------------------------------------------------------------

      R M S  F L U C T U A T I O N S

 NSTEP =   500000   TIME(PS) =    5500.000  TEMP(K) =     1.60  PRESS =   141.0
 Etot   =       188.9726  EKtot   =       109.3665  EPtot      =       152.8394
 BOND   =        21.8497  ANGLE   =        32.6041  DIHED      =        19.4292
 1-4 NB =        11.4368  1-4 EEL =        33.4726  VDWAALS    =       143.5937
 EELEC  =       227.8693  EHBOND  =         0.0000  RESTRAINT  =         2.6318
 EAMBER (non-restraint)  =       150.2077
 EKCMT  =        72.7458  VIRIAL  =      1018.5104  VOLUME     =       396.3581
                                                    Density    =         0.0012
 Ewald error estimate:   0.4204E-04
 ------------------------------------------------------------------------------
