-------------------------------------------------------
          Amber 24 SANDER                              2024
          -------------------------------------------------------

  [-O]verwriting output

File Assignments:

 Here is the input file:

NPT 300K; no restraint
&cntrl
  imin=0, irest=1, ntx=5, ig=-1,
  ntb=2, ntp=1, pres0=1.0, taup=2.0,
  ntt=3, temp0=300.0, gamma_ln=1.0, nscm=0,
  nstlim=1000000, dt=0.002,
  ntc=2, ntf=2, cut=8.0,
  iwrap=0, ioutfm=1, ntxo=2,
  ntpr=5000, ntwx=5000, ntwr=10000
/

--------------------------------------------------------------------------------
   1.  RESOURCE   USE:
--------------------------------------------------------------------------------

 getting box info from netcdf restart file
 NATOM  =   33493 NTYPES =      16 NBONH =   31700 MBONA  =    1842
 NTHETH =    4001 MTHETA =    2496 NPHIH =    8095 MPHIA  =    7762
 NHPARM =       0 NPARM  =       0 NNB   =   59570 NRES   =   10205
 NBONA  =    1842 NTHETA =    2496 NPHIA =    7762 NUMBND =      99
 NUMANG =     218 NPTRA  =     214 NATYP =      55 NPHB   =       0
 IFBOX  =       2 NMXRS  =      40 IFCAP =       0 NEXTRA =       0
 NCOPY  =       0

     BOX TYPE: TRUNCATED OCTAHEDRON
Note: ig = -1. Setting random seed to   646945 based on wallclock time in microseconds
      and disabling the synchronization of random numbers between tasks
      to improve performance.

--------------------------------------------------------------------------------
   2.  CONTROL  DATA  FOR  THE  RUN
--------------------------------------------------------------------------------

default_name

General flags:
     imin    =       0, nmropt  =       0

Nature and format of input:
     ntx     =       5, irest   =       1, ntrx    =       1

Nature and format of output:
     ntxo    =       2, ntpr    =    5000, ntrx    =       1, ntwr    =   10000
     iwrap   =       0, ntwx    =    5000, ntwv    =       0, ntwe    =       0
     ioutfm  =       1, ntwprt  =       0, idecomp =       0, rbornstat=      0

Potential function:
     ntf     =       2, ntb     =       2, igb     =       0, nsnb    =      25
     ipol    =       0, gbsa    =       0, iesp    =       0
     dielc   =   1.00000, cut     =   8.00000, intdiel =   1.00000

Frozen or restrained atoms:
     ibelly  =       0, ntr     =       0

Molecular dynamics:
     nstlim  =   1000000, nscm    =         0, nrespa  =         1
     t       =   0.00000, dt      =   0.00200, vlimit  =  20.00000

Langevin dynamics temperature regulation:
     ig      =  646945
     temp0   = 300.00000, tempi   =   0.00000, gamma_ln=   1.00000

Pressure regulation:
     ntp     =       1
     pres0   =   1.00000, comp    =  44.60000, taup    =   2.00000

SHAKE:
     ntc     =       2, jfastw  =       0
     tol     =   0.00001

Ewald parameters:
     verbose =       0, ew_type =       0, nbflag  =       1, use_pme =       1
     vdwmeth =       1, eedmeth =       1, netfrc  =       1
     Box X =   75.707   Box Y =   75.707   Box Z =   75.707
     Alpha =  109.471   Beta  =  109.471   Gamma =  109.471
     NFFT1 =   80       NFFT2 =   75       NFFT3 =   75
     Cutoff=    8.000   Tol   =0.100E-04
     Ewald Coefficient =  0.34864
     Interpolation order =    4

--------------------------------------------------------------------------------
   3.  ATOMIC COORDINATES AND VELOCITIES
--------------------------------------------------------------------------------

default_name
 begin time read from input coords =  5500.000 ps

 Number of triangulated 3-point waters found:     9983

     Sum of charges from parm topology file =  -0.00000008
     Forcing neutrality...

--------------------------------------------------------------------------------
   4.  RESULTS
 NSTEP =     5000   TIME(PS) =    5510.000  TEMP(K) =   301.98  PRESS =   109.8
 Etot   =    -80099.3711  EKtot   =     20637.1472  EPtot      =   -100736.5183
 BOND   =       659.1595  ANGLE   =      1809.3123  DIHED      =      2791.9925
 1-4 NB =       812.6549  1-4 EEL =     10216.4356  VDWAALS    =     11944.1826
 EELEC  =   -128970.2558  EHBOND  =         0.0000  RESTRAINT  =         0.0000
 EKCMT  =      9038.7900  VIRIAL  =      8247.0048  VOLUME     =    334054.6585
                                                    Density    =         1.0203
 Ewald error estimate:   0.1205E-05
 ------------------------------------------------------------------------------

      A V E R A G E S   O V E R 1000000 S T E P S

 NSTEP =  1000000   TIME(PS) =    7500.000  TEMP(K) =   300.00  PRESS =     1.0
 Etot   =    -80495.0387  EKtot   =     20501.5384  EPtot      =   -100996.5771
 BOND   =       681.9859  ANGLE   =      1855.5218  DIHED      =      2765.2039
 1-4 NB =       790.0967  1-4 EEL =     10177.3788  VDWAALS    =     12068.2993
 EELEC  =   -129335.0636  EHBOND  =         0.0000  RESTRAINT  =         0.0000
 EKCMT  =      8962.8388  VIRIAL  =      8955.5217  VOLUME     =    334048.9567
                                                    Density    =         1.0203
 Ewald error estimate:   0.5835E-04
 ------------------------------------------------------------------------------

      R M S  F L U C T U A T I O N S

 NSTEP =  1000000   TIME(PS) =    7500.000  TEMP(K) =     1.58  PRESS =   140.4
 Etot   =       184.5820  EKtot   =       108.1616  EPtot      =       151.2728
 BOND   =        21.9083  ANGLE   =        32.6174  DIHED      =        19.6184
 1-4 NB =        11.4793  1-4 EEL =        37.6446  VDWAALS    =       146.2990
 EELEC  =       232.9298  EHBOND  =         0.0000  RESTRAINT  =         0.0000
 EKCMT  =        72.4855  VIRIAL  =      1013.8761  VOLUME     =       373.2826
                                                    Density    =         0.0011
 Ewald error estimate:   0.4211E-04
 ------------------------------------------------------------------------------
