-------------------------------------------------------
          Amber 24 SANDER                              2024
          -------------------------------------------------------

  [-O]verwriting output

File Assignments:

 Here is the input file:

NPT 300K; protein backbone + 5SQ heavy atoms restrained (0.5)
&cntrl
  imin=0, irest=1, ntx=5, ig=-1,
  ntb=2, ntp=1, pres0=1.0, taup=2.0,
  ntt=3, temp0=300.0, gamma_ln=1.0, nscm=0,
  nstlim=500000, dt=0.002,
  ntc=2, ntf=2, cut=8.0,
  iwrap=0, ioutfm=1, ntxo=2,
  ntpr=5000, ntwx=5000, ntwr=10000,
  ntr=1, restraint_wt=0.5,
  restraintmask='((!:WAT,Na+,Cl-,5SQ) & @N,CA,C) | (:5SQ@CA1,CA2,CA3,CB1,CB2,CG1,CG2,CD1,CD2,CE1,CE2,CZ1,OH,C1,N1,C2,N2,O2,C3,N3,O3)'
/

--------------------------------------------------------------------------------
   1.  RESOURCE   USE:
--------------------------------------------------------------------------------

 getting box info from netcdf restart file
 NATOM  =   33493 NTYPES =      16 NBONH =   31700 MBONA  =    1842
 NTHETH =    4001 MTHETA =    2496 NPHIH =    8095 MPHIA  =    7762
 NHPARM =       0 NPARM  =       0 NNB   =   59570 NRES   =   10205
 NBONA  =    1842 NTHETA =    2496 NPHIA =    7762 NUMBND =      99
 NUMANG =     218 NPTRA  =     214 NATYP =      55 NPHB   =       0
 IFBOX  =       2 NMXRS  =      40 IFCAP =       0 NEXTRA =       0
 NCOPY  =       0

     BOX TYPE: TRUNCATED OCTAHEDRON
Note: ig = -1. Setting random seed to   145518 based on wallclock time in microseconds
      and disabling the synchronization of random numbers between tasks
      to improve performance.

--------------------------------------------------------------------------------
   2.  CONTROL  DATA  FOR  THE  RUN
--------------------------------------------------------------------------------

default_name

General flags:
     imin    =       0, nmropt  =       0

Nature and format of input:
     ntx     =       5, irest   =       1, ntrx    =       1

Nature and format of output:
     ntxo    =       2, ntpr    =    5000, ntrx    =       1, ntwr    =   10000
     iwrap   =       0, ntwx    =    5000, ntwv    =       0, ntwe    =       0
     ioutfm  =       1, ntwprt  =       0, idecomp =       0, rbornstat=      0

Potential function:
     ntf     =       2, ntb     =       2, igb     =       0, nsnb    =      25
     ipol    =       0, gbsa    =       0, iesp    =       0
     dielc   =   1.00000, cut     =   8.00000, intdiel =   1.00000

Frozen or restrained atoms:
     ibelly  =       0, ntr     =       1
     restraint_wt =   0.50000

Molecular dynamics:
     nstlim  =    500000, nscm    =         0, nrespa  =         1
     t       =   0.00000, dt      =   0.00200, vlimit  =  20.00000

Langevin dynamics temperature regulation:
     ig      =  145518
     temp0   = 300.00000, tempi   =   0.00000, gamma_ln=   1.00000

Pressure regulation:
     ntp     =       1
     pres0   =   1.00000, comp    =  44.60000, taup    =   2.00000

SHAKE:
     ntc     =       2, jfastw  =       0
     tol     =   0.00001

Ewald parameters:
     verbose =       0, ew_type =       0, nbflag  =       1, use_pme =       1
     vdwmeth =       1, eedmeth =       1, netfrc  =       1
     Box X =   75.750   Box Y =   75.750   Box Z =   75.750
     Alpha =  109.471   Beta  =  109.471   Gamma =  109.471
     NFFT1 =   80       NFFT2 =   75       NFFT3 =   75
     Cutoff=    8.000   Tol   =0.100E-04
     Ewald Coefficient =  0.34864
     Interpolation order =    4

    LOADING THE CONSTRAINED ATOMS AS GROUPS

   5.  REFERENCE ATOM COORDINATES

  defa
     Mask ((!:WAT,Na+,Cl-,5SQ) & @N,CA,C) | (:5SQ@CA1,CA2,CA3,CB1,CB2,CG1,CG2,CD1,CD2,CE1,CE2,CZ1,OH,C1,N1,C2,N2,O2,C3,N3,O3); matches   681 atoms

--------------------------------------------------------------------------------
   3.  ATOMIC COORDINATES AND VELOCITIES
--------------------------------------------------------------------------------

default_name
 begin time read from input coords =  3500.000 ps

 Number of triangulated 3-point waters found:     9983

     Sum of charges from parm topology file =  -0.00000008
     Forcing neutrality...

--------------------------------------------------------------------------------
   4.  RESULTS
 NSTEP =     5000   TIME(PS) =    3510.000  TEMP(K) =   297.84  PRESS =   -80.1
 Etot   =    -80833.2708  EKtot   =     20354.1099  EPtot      =   -101187.3806
 BOND   =       650.6240  ANGLE   =      1859.3236  DIHED      =      2791.8508
 1-4 NB =       777.1818  1-4 EEL =     10167.3140  VDWAALS    =     12042.4590
 EELEC  =   -129522.8968  EHBOND  =         0.0000  RESTRAINT  =        46.7630
 EAMBER (non-restraint)  =   -101234.1436
 EKCMT  =      9027.8017  VIRIAL  =      9606.2095  VOLUME     =    334337.6101
                                                    Density    =         1.0194
 Ewald error estimate:   0.6975E-04
 ------------------------------------------------------------------------------

      A V E R A G E S   O V E R  500000 S T E P S

 NSTEP =   500000   TIME(PS) =    4500.000  TEMP(K) =   299.96  PRESS =     1.0
 Etot   =    -80446.4211  EKtot   =     20498.6844  EPtot      =   -100945.1056
 BOND   =       678.1564  ANGLE   =      1849.0925  DIHED      =      2779.8176
 1-4 NB =       793.8305  1-4 EEL =     10225.1169  VDWAALS    =     12068.8165
 EELEC  =   -129390.2754  EHBOND  =         0.0000  RESTRAINT  =        50.3395
 EAMBER (non-restraint)  =   -100995.4451
 EKCMT  =      8961.4227  VIRIAL  =      8954.4881  VOLUME     =    334092.1320
                                                    Density    =         1.0202
 Ewald error estimate:   0.5733E-04
 ------------------------------------------------------------------------------

      R M S  F L U C T U A T I O N S

 NSTEP =   500000   TIME(PS) =    4500.000  TEMP(K) =     1.61  PRESS =   142.2
 Etot   =       188.3252  EKtot   =       109.7360  EPtot      =       151.9045
 BOND   =        21.8958  ANGLE   =        32.3993  DIHED      =        18.6808
 1-4 NB =        11.4640  1-4 EEL =        34.1217  VDWAALS    =       146.0877
 EELEC  =       232.2330  EHBOND  =         0.0000  RESTRAINT  =         4.0524
 EAMBER (non-restraint)  =       147.8521
 EKCMT  =        72.4472  VIRIAL  =      1025.5043  VOLUME     =       422.5578
                                                    Density    =         0.0013
 Ewald error estimate:   0.4178E-04
 ------------------------------------------------------------------------------
