-------------------------------------------------------
          Amber 24 SANDER                              2024
          -------------------------------------------------------

  [-O]verwriting output

File Assignments:

 Here is the input file:

NPT 300K; no restraint (longer sim for more stability)
&cntrl
  imin=0, irest=1, ntx=5, ig=-1,
  ntb=2, ntp=1, pres0=1.0, taup=2.0,
  ntt=3, temp0=300.0, gamma_ln=1.0, nscm=0,
  nstlim=5000000, dt=0.002,
  ntc=2, ntf=2, cut=8.0,
  iwrap=0, ioutfm=1, ntxo=2,
  ntpr=5000, ntwx=5000, ntwr=10000
/

--------------------------------------------------------------------------------
   1.  RESOURCE   USE:
--------------------------------------------------------------------------------

 getting box info from netcdf restart file
 NATOM  =   33493 NTYPES =      16 NBONH =   31700 MBONA  =    1842
 NTHETH =    4001 MTHETA =    2496 NPHIH =    8095 MPHIA  =    7762
 NHPARM =       0 NPARM  =       0 NNB   =   59570 NRES   =   10205
 NBONA  =    1842 NTHETA =    2496 NPHIA =    7762 NUMBND =      99
 NUMANG =     218 NPTRA  =     214 NATYP =      55 NPHB   =       0
 IFBOX  =       2 NMXRS  =      40 IFCAP =       0 NEXTRA =       0
 NCOPY  =       0

     BOX TYPE: TRUNCATED OCTAHEDRON
Note: ig = -1. Setting random seed to   891874 based on wallclock time in microseconds
      and disabling the synchronization of random numbers between tasks
      to improve performance.

--------------------------------------------------------------------------------
   2.  CONTROL  DATA  FOR  THE  RUN
--------------------------------------------------------------------------------

default_name

General flags:
     imin    =       0, nmropt  =       0

Nature and format of input:
     ntx     =       5, irest   =       1, ntrx    =       1

Nature and format of output:
     ntxo    =       2, ntpr    =    5000, ntrx    =       1, ntwr    =   10000
     iwrap   =       0, ntwx    =    5000, ntwv    =       0, ntwe    =       0
     ioutfm  =       1, ntwprt  =       0, idecomp =       0, rbornstat=      0

Potential function:
     ntf     =       2, ntb     =       2, igb     =       0, nsnb    =      25
     ipol    =       0, gbsa    =       0, iesp    =       0
     dielc   =   1.00000, cut     =   8.00000, intdiel =   1.00000

Frozen or restrained atoms:
     ibelly  =       0, ntr     =       0

Molecular dynamics:
     nstlim  =   5000000, nscm    =         0, nrespa  =         1
     t       =   0.00000, dt      =   0.00200, vlimit  =  20.00000

Langevin dynamics temperature regulation:
     ig      =  891874
     temp0   = 300.00000, tempi   =   0.00000, gamma_ln=   1.00000

Pressure regulation:
     ntp     =       1
     pres0   =   1.00000, comp    =  44.60000, taup    =   2.00000

SHAKE:
     ntc     =       2, jfastw  =       0
     tol     =   0.00001

Ewald parameters:
     verbose =       0, ew_type =       0, nbflag  =       1, use_pme =       1
     vdwmeth =       1, eedmeth =       1, netfrc  =       1
     Box X =   75.723   Box Y =   75.723   Box Z =   75.723
     Alpha =  109.471   Beta  =  109.471   Gamma =  109.471
     NFFT1 =   80       NFFT2 =   75       NFFT3 =   75
     Cutoff=    8.000   Tol   =0.100E-04
     Ewald Coefficient =  0.34864
     Interpolation order =    4

--------------------------------------------------------------------------------
   3.  ATOMIC COORDINATES AND VELOCITIES
--------------------------------------------------------------------------------

default_name
 begin time read from input coords =  7500.000 ps

 Number of triangulated 3-point waters found:     9983

     Sum of charges from parm topology file =  -0.00000008
     Forcing neutrality...

--------------------------------------------------------------------------------
   4.  RESULTS
 NSTEP =     5000   TIME(PS) =    7510.000  TEMP(K) =   300.06  PRESS =  -147.7
 Etot   =    -80511.7685  EKtot   =     20505.9588  EPtot      =   -101017.7272
 BOND   =       644.2346  ANGLE   =      1836.3478  DIHED      =      2797.9723
 1-4 NB =       801.2189  1-4 EEL =     10236.3063  VDWAALS    =     11859.9142
 EELEC  =   -129193.7213  EHBOND  =         0.0000  RESTRAINT  =         0.0000
 EKCMT  =      8985.6766  VIRIAL  =     10049.1706  VOLUME     =    333517.0242
                                                    Density    =         1.0219
 Ewald error estimate:   0.2133E-04
 ------------------------------------------------------------------------------

      A V E R A G E S   O V E R 5000000 S T E P S

 NSTEP =  5000000   TIME(PS) =   17500.000  TEMP(K) =   299.98  PRESS =     1.0
 Etot   =    -80507.4320  EKtot   =     20500.3537  EPtot      =   -101007.7858
 BOND   =       681.9588  ANGLE   =      1856.4481  DIHED      =      2763.1756
 1-4 NB =       789.5789  1-4 EEL =     10178.9145  VDWAALS    =     12077.0768
 EELEC  =   -129354.9384  EHBOND  =         0.0000  RESTRAINT  =         0.0000
 EKCMT  =      8961.2003  VIRIAL  =      8953.9498  VOLUME     =    334107.0351
                                                    Density    =         1.0201
 Ewald error estimate:   0.5782E-04
 ------------------------------------------------------------------------------

      R M S  F L U C T U A T I O N S

 NSTEP =  5000000   TIME(PS) =   17500.000  TEMP(K) =     1.60  PRESS =   140.2
 Etot   =       190.0036  EKtot   =       109.3600  EPtot      =       153.7409
 BOND   =        21.9008  ANGLE   =        32.5476  DIHED      =        19.5909
 1-4 NB =        11.4383  1-4 EEL =        40.6668  VDWAALS    =       145.9162
 EELEC  =       234.9881  EHBOND  =         0.0000  RESTRAINT  =         0.0000
 EKCMT  =        72.5709  VIRIAL  =      1011.8616  VOLUME     =       396.4493
                                                    Density    =         0.0012
 Ewald error estimate:   0.4198E-04
 ------------------------------------------------------------------------------
