-------------------------------------------------------
          Amber 22 SANDER                              2022
          -------------------------------------------------------

  [-O]verwriting output

File Assignments:

 Here is the input file:

NPT 300K; whole solute restrained (2.0)
&cntrl
  imin=0, irest=1, ntx=5, ig=-1,
  ntb=2, ntp=1, pres0=1.0, taup=2.0,
  ntt=3, temp0=300.0, gamma_ln=1.0, nscm=0,
  nstlim=250000, dt=0.002,
  ntc=2, ntf=2, cut=8.0,
  iwrap=0, ioutfm=1, ntxo=2,
  ntpr=1000, ntwx=1000, ntwr=10000,
  ntr=1, restraint_wt=2.0,
  restraintmask='((!:WAT,Na+,Cl-) & !@H=)'
/

--------------------------------------------------------------------------------
   1.  RESOURCE   USE:
--------------------------------------------------------------------------------

 getting box info from netcdf restart file
 NATOM  =   33493 NTYPES =      16 NBONH =   31700 MBONA  =    1842
 NTHETH =    4001 MTHETA =    2496 NPHIH =    8095 MPHIA  =    7762
 NHPARM =       0 NPARM  =       0 NNB   =   59570 NRES   =   10205
 NBONA  =    1842 NTHETA =    2496 NPHIA =    7762 NUMBND =      99
 NUMANG =     218 NPTRA  =     214 NATYP =      55 NPHB   =       0
 IFBOX  =       2 NMXRS  =      40 IFCAP =       0 NEXTRA =       0
 NCOPY  =       0

     BOX TYPE: TRUNCATED OCTAHEDRON
Note: ig = -1. Setting random seed to   252554 based on wallclock time in microseconds.

--------------------------------------------------------------------------------
   2.  CONTROL  DATA  FOR  THE  RUN
--------------------------------------------------------------------------------

default_name

General flags:
     imin    =       0, nmropt  =       0

Nature and format of input:
     ntx     =       5, irest   =       1, ntrx    =       1

Nature and format of output:
     ntxo    =       2, ntpr    =    1000, ntrx    =       1, ntwr    =   10000
     iwrap   =       0, ntwx    =    1000, ntwv    =       0, ntwe    =       0
     ioutfm  =       1, ntwprt  =       0, idecomp =       0, rbornstat=      0

Potential function:
     ntf     =       2, ntb     =       2, igb     =       0, nsnb    =      25
     ipol    =       0, gbsa    =       0, iesp    =       0
     dielc   =   1.00000, cut     =   8.00000, intdiel =   1.00000

Frozen or restrained atoms:
     ibelly  =       0, ntr     =       1
     restraint_wt =   2.00000

Molecular dynamics:
     nstlim  =    250000, nscm    =         0, nrespa  =         1
     t       =   0.00000, dt      =   0.00200, vlimit  =  20.00000

Langevin dynamics temperature regulation:
     ig      =  252554
     temp0   = 300.00000, tempi   =   0.00000, gamma_ln=   1.00000

Pressure regulation:
     ntp     =       1
     pres0   =   1.00000, comp    =  44.60000, taup    =   2.00000

SHAKE:
     ntc     =       2, jfastw  =       0
     tol     =   0.00001

Ewald parameters:
     verbose =       0, ew_type =       0, nbflag  =       1, use_pme =       1
     vdwmeth =       1, eedmeth =       1, netfrc  =       1
     Box X =   75.737   Box Y =   75.737   Box Z =   75.737
     Alpha =  109.471   Beta  =  109.471   Gamma =  109.471
     NFFT1 =   80       NFFT2 =   75       NFFT3 =   75
     Cutoff=    8.000   Tol   =0.100E-04
     Ewald Coefficient =  0.34864
     Interpolation order =    4

    LOADING THE CONSTRAINED ATOMS AS GROUPS

   5.  REFERENCE ATOM COORDINATES

  defa
     Mask ((!:WAT,Na+,Cl-) & !@H=); matches  1792 atoms

--------------------------------------------------------------------------------
   3.  ATOMIC COORDINATES AND VELOCITIES
--------------------------------------------------------------------------------

default_name
 begin time read from input coords =  2000.000 ps

 Number of triangulated 3-point waters found:     9983

     Sum of charges from parm topology file =  -0.00000008
     Forcing neutrality...

--------------------------------------------------------------------------------
   4.  RESULTS
 NSTEP =     1000   TIME(PS) =    2002.000  TEMP(K) =   298.99  PRESS =   -27.2
 Etot   =    -80318.4692  EKtot   =     20432.4992  EPtot      =   -100750.9684
 BOND   =       653.5630  ANGLE   =      1845.7959  DIHED      =      2800.3016
 1-4 NB =       804.2222  1-4 EEL =     10139.2065  VDWAALS    =     11917.8657
 EELEC  =   -129141.3699  EHBOND  =         0.0000  RESTRAINT  =       229.4466
 EAMBER (non-restraint)  =   -100980.4150
 EKCMT  =      8935.1774  VIRIAL  =      9131.4631  VOLUME     =    334239.8048
                                                    Density    =         1.0197
 Ewald error estimate:   0.4701E-04
 ------------------------------------------------------------------------------

      A V E R A G E S   O V E R  250000 S T E P S

 NSTEP =   250000   TIME(PS) =    2500.000  TEMP(K) =   299.96  PRESS =     0.8
 Etot   =    -80251.8275  EKtot   =     20499.0420  EPtot      =   -100750.8696
 BOND   =       675.3321  ANGLE   =      1830.8399  DIHED      =      2785.4621
 1-4 NB =       788.5004  1-4 EEL =     10169.9424  VDWAALS    =     12062.9742
 EELEC  =   -129309.9898  EHBOND  =         0.0000  RESTRAINT  =       246.0691
 EAMBER (non-restraint)  =   -100996.9387
 EKCMT  =      8958.9983  VIRIAL  =      8953.2849  VOLUME     =    334324.0546
                                                    Density    =         1.0195
 Ewald error estimate:   0.5817E-04
 ------------------------------------------------------------------------------

      R M S  F L U C T U A T I O N S

 NSTEP =   250000   TIME(PS) =    2500.000  TEMP(K) =     1.59  PRESS =   139.5
 Etot   =       193.0911  EKtot   =       108.7574  EPtot      =       156.7421
 BOND   =        21.5252  ANGLE   =        31.7225  DIHED      =        16.3089
 1-4 NB =        10.6429  1-4 EEL =        28.8599  VDWAALS    =       146.0413
 EELEC  =       236.3590  EHBOND  =         0.0000  RESTRAINT  =         9.8437
 EAMBER (non-restraint)  =       146.8985
 EKCMT  =        72.0413  VIRIAL  =      1009.2305  VOLUME     =       406.1591
                                                    Density    =         0.0012
 Ewald error estimate:   0.4227E-04
 ------------------------------------------------------------------------------
